NAD
     RDKit          3D

 71 75  0  0  1  0  0  0  0  0999 V2000
   -0.8870   -0.8130   -0.6760 P   0  0  2  0  0  0  0  0  0  0  0  0
   -1.2580    0.1020   -1.7780 O   0  0  0  0  0  0  0  0  0  0  0  0
   -0.2490   -2.1590   -1.2870 O   0  0  0  0  0  0  0  0  0  0  0  0
   -2.2000   -1.1820    0.1800 O   0  0  0  0  0  0  0  0  0  0  0  0
   -3.1590   -1.7060   -0.7410 C   0  0  0  0  0  0  0  0  0  0  0  0
   -4.4370   -2.0790    0.0120 C   0  0  1  0  0  0  0  0  0  0  0  0
   -5.0680   -0.8930    0.5230 O   0  0  0  0  0  0  0  0  0  0  0  0
   -5.4340   -2.7540   -0.9500 C   0  0  1  0  0  0  0  0  0  0  0  0
   -5.7450   -4.0780   -0.5120 O   0  0  0  0  0  0  0  0  0  0  0  0
   -6.6930   -1.8500   -0.8810 C   0  0  1  0  0  0  0  0  0  0  0  0
   -7.8850   -2.6380   -0.8620 O   0  0  0  0  0  0  0  0  0  0  0  0
   -6.4930   -1.1160    0.4690 C   0  0  2  0  0  0  0  0  0  0  0  0
   -7.2160    0.1580    0.4790 N   0  0  0  0  0  0  0  0  0  0  0  0
   -6.7230    1.3680    0.0890 C   0  0  0  0  0  0  0  0  0  0  0  0
   -7.6350    2.2860    0.2290 N   0  0  0  0  0  0  0  0  0  0  0  0
   -8.7680    1.7250    0.7170 C   0  0  0  0  0  0  0  0  0  0  0  0
  -10.0420    2.2090    1.0590 C   0  0  0  0  0  0  0  0  0  0  0  0
  -10.3520    3.5500    0.9160 N   0  0  0  0  0  0  0  0  0  0  0  0
  -10.9420    1.3480    1.5240 N   0  0  0  0  0  0  0  0  0  0  0  0
  -10.6550    0.0670    1.6630 C   0  0  0  0  0  0  0  0  0  0  0  0
   -9.4760   -0.4310    1.3550 N   0  0  0  0  0  0  0  0  0  0  0  0
   -8.5140    0.3520    0.8780 C   0  0  0  0  0  0  0  0  0  0  0  0
    0.1910   -0.0930    0.2790 O   0  0  0  0  0  0  0  0  0  0  0  0
    1.2040    0.7070   -0.6830 P   0  0  2  0  0  0  0  0  0  0  0  0
    0.5560    2.0420   -1.1150 O   0  0  0  0  0  0  0  0  0  0  0  0
    1.5090   -0.1460   -1.9340 O   0  0  0  0  0  0  0  0  0  0  0  0
    2.5730    1.0070    0.1090 O   0  0  0  0  0  0  0  0  0  0  0  0
    3.4690    1.6100   -0.8270 C   0  0  0  0  0  0  0  0  0  0  0  0
    4.7970    1.9210   -0.1350 C   0  0  1  0  0  0  0  0  0  0  0  0
    5.4670    0.6980    0.2410 O   0  0  0  0  0  0  0  0  0  0  0  0
    5.7670    2.6180   -1.1150 C   0  0  1  0  0  0  0  0  0  0  0  0
    5.7450    4.0330   -0.9210 O   0  0  0  0  0  0  0  0  0  0  0  0
    7.1540    2.0400   -0.7460 C   0  0  1  0  0  0  0  0  0  0  0  0
    8.0310    3.0820   -0.3140 O   0  0  0  0  0  0  0  0  0  0  0  0
    6.8540    1.0620    0.4110 C   0  0  2  0  0  0  0  0  0  0  0  0
    7.7080   -0.1250    0.3100 N   0  0  0  0  0  0  0  0  0  0  0  0
    8.7630   -0.2220    1.0930 C   0  0  0  0  0  0  0  0  0  0  0  0
    9.6010   -1.3350    1.0170 C   0  0  0  0  0  0  0  0  0  0  0  0
   10.7890   -1.4420    1.8910 C   0  0  0  0  0  0  0  0  0  0  0  0
   11.0450   -0.5530    2.6800 O   0  0  0  0  0  0  0  0  0  0  0  0
   11.5880   -2.5240    1.8130 N   0  0  0  0  0  0  0  0  0  0  0  0
    9.2960   -2.3520    0.1040 C   0  0  0  0  0  0  0  0  0  0  0  0
    8.1730   -2.2040   -0.6900 C   0  0  0  0  0  0  0  0  0  0  0  0
    7.3950   -1.0670   -0.5590 C   0  0  0  0  0  0  0  0  0  0  0  0
   -0.0210   -2.7260   -0.5370 H   0  0  0  0  0  0  0  0  0  0  0  0
   -3.3880   -0.9540   -1.4950 H   0  0  0  0  0  0  0  0  0  0  0  0
   -2.7500   -2.5940   -1.2250 H   0  0  0  0  0  0  0  0  0  0  0  0
   -4.2000   -2.7550    0.8340 H   0  0  0  0  0  0  0  0  0  0  0  0
   -5.0330   -2.7730   -1.9630 H   0  0  0  0  0  0  0  0  0  0  0  0
   -6.4150   -4.4230   -1.1170 H   0  0  0  0  0  0  0  0  0  0  0  0
   -6.7110   -1.1420   -1.7100 H   0  0  0  0  0  0  0  0  0  0  0  0
   -7.9510   -3.0660   -1.7260 H   0  0  0  0  0  0  0  0  0  0  0  0
   -6.8150   -1.7450    1.2990 H   0  0  0  0  0  0  0  0  0  0  0  0
   -5.7240    1.5400   -0.2820 H   0  0  0  0  0  0  0  0  0  0  0  0
   -9.6860    4.1680    0.5760 H   0  0  0  0  0  0  0  0  0  0  0  0
  -11.2350    3.8720    1.1570 H   0  0  0  0  0  0  0  0  0  0  0  0
  -11.4160   -0.5980    2.0450 H   0  0  0  0  0  0  0  0  0  0  0  0
    3.0310    2.5330   -1.2060 H   0  0  0  0  0  0  0  0  0  0  0  0
    3.6430    0.9240   -1.6560 H   0  0  0  0  0  0  0  0  0  0  0  0
    4.6290    2.5470    0.7420 H   0  0  0  0  0  0  0  0  0  0  0  0
    5.5110    2.3710   -2.1450 H   0  0  0  0  0  0  0  0  0  0  0  0
    6.3670    4.4120   -1.5570 H   0  0  0  0  0  0  0  0  0  0  0  0
    7.5830    1.5070   -1.5940 H   0  0  0  0  0  0  0  0  0  0  0  0
    8.1300    3.6910   -1.0600 H   0  0  0  0  0  0  0  0  0  0  0  0
    7.0030    1.5540    1.3730 H   0  0  0  0  0  0  0  0  0  0  0  0
    8.9860    0.5700    1.7910 H   0  0  0  0  0  0  0  0  0  0  0  0
   12.3670   -2.5940    2.3860 H   0  0  0  0  0  0  0  0  0  0  0  0
   11.3820   -3.2350    1.1860 H   0  0  0  0  0  0  0  0  0  0  0  0
    9.9200   -3.2290    0.0230 H   0  0  0  0  0  0  0  0  0  0  0  0
    7.9060   -2.9670   -1.4060 H   0  0  0  0  0  0  0  0  0  0  0  0
    6.5180   -0.9480   -1.1780 H   0  0  0  0  0  0  0  0  0  0  0  0
  1  2  2  0
  1  3  1  6
  1  4  1  0
  1 23  1  0
  3 45  1  0
  4  5  1  0
  5  6  1  0
  5 46  1  0
  5 47  1  0
  6  7  1  0
  6  8  1  0
  6 48  1  1
  7 12  1  0
  8  9  1  0
  8 10  1  0
  8 49  1  6
  9 50  1  0
 10 11  1  0
 10 12  1  0
 10 51  1  6
 11 52  1  0
 12 13  1  0
 12 53  1  1
 13 14  1  0
 13 22  1  0
 14 15  2  0
 14 54  1  0
 15 16  1  0
 16 17  1  0
 16 22  2  0
 17 18  1  0
 17 19  2  0
 18 55  1  0
 18 56  1  0
 19 20  1  0
 20 21  2  0
 20 57  1  0
 21 22  1  0
 23 24  1  0
 24 25  2  0
 24 26  1  6
 24 27  1  0
 27 28  1  0
 28 29  1  0
 28 58  1  0
 28 59  1  0
 29 30  1  0
 29 31  1  0
 29 60  1  1
 30 35  1  0
 31 32  1  0
 31 33  1  0
 31 61  1  6
 32 62  1  0
 33 34  1  0
 33 35  1  0
 33 63  1  6
 34 64  1  0
 35 36  1  0
 35 65  1  1
 36 37  2  0
 36 44  1  0
 37 38  1  0
 37 66  1  0
 38 39  1  0
 38 42  2  0
 39 40  2  0
 39 41  1  0
 41 67  1  0
 41 68  1  0
 42 43  1  0
 42 69  1  0
 43 44  2  0
 43 70  1  0
 44 71  1  0
M  CHG  2  26  -1  36   1
M  END
